 45
 Sucrose structure from Pubchem(https://pubchem.ncbi.nlm.nih.gov/rest/pug/compound/CID/5988/record/SDF/?record_type=3d&response_type=save&response_basename=Conformer3D_CID_5988)
  O  -1.4680    0.4385   -0.9184
  O  -0.6033   -0.8919    0.8122
  O   0.9285    0.4834   -0.3053
  O  -3.0702   -2.0054    1.1933
  O  -4.6200    0.6319    0.7326
  O   1.2231    0.2156    2.5658
  O   3.6108   -1.7286    0.6379
  O   3.1500    1.8347    1.1537
  O  -1.9582   -1.8480   -2.4300
  O  -1.3845    3.2450   -0.8933
  O   3.8369    0.2057   -2.5044
  C  -1.4947   -0.8632   -0.3037
  C  -2.9301   -1.0229    0.1866
  C  -3.2290    0.3737    0.6887
  C  -2.5505    1.2243   -0.3791
  C   0.7534   -0.7453    0.3971
  C   1.6462   -0.7853    1.6390
  C   3.1147   -0.5553    1.2746
  C   3.2915    0.6577    0.3521
  C   2.2579    0.7203   -0.7858
  C  -1.0903   -1.9271   -1.3122
  C  -2.0027    2.5323    0.1653
  C   2.5886   -0.1903   -1.9666
  H  -3.6217   -1.2732   -0.6273
  H  -2.8148    0.5301    1.6917
  H  -3.2289    1.4361   -1.2150
  H   1.0588   -1.5992   -0.2109
  H   1.5257   -1.7530    2.1409
  H   3.6908   -0.4029    2.1956
  H   4.3100    0.6750   -0.0511
  H   2.2441    1.7505   -1.1644
  H  -1.1311   -2.9324   -0.8803
  H  -0.0995   -1.7686   -1.7400
  H  -1.2448    2.3605    0.9369
  H  -2.7990    3.1543    0.5841
  H   1.8210   -0.1132   -2.7443
  H   2.6532   -1.2446   -1.6891
  H  -3.9800   -1.9485    1.5318
  H  -4.7364    1.5664    0.9746
  H   0.2787    0.0666    2.7433
  H   4.5490   -1.5769    0.4327
  H   3.3427    2.6011    0.5871
  H  -1.6962   -2.5508   -3.0488
  H  -0.6790    2.6806   -1.2535
  H   3.7489    1.1234   -2.8135
